Circuit: * Z:\home\mark\Dropbox\personal\SurfnCircuits\NixiePowerSupply\SimCalcFiles\BoostSupply_160v.asc

Warning: Multiple definitions of model "es1d" Type: Diode
C3: Increased Cpar to 1.5e-010
u1:vr2: Missing value, assumed 0V @ DC
Direct Newton iteration failed to find .op point.  (Use ".option noopiter" to skip.)
Starting Gmin stepping
Gmin = 10
vernier = 0.5
Gmin = 2.07126
vernier = 0.25
vernier = 0.125
vernier = 0.0625
vernier = 0.03125
Gmin = 2.15923
vernier = 0.015625
vernier = 0.0078125
vernier = 0.00390625
vernier = 0.00195313
Gmin = 2.16235
vernier = 0.00260417
Gmin = 2.14972
vernier = 0.00347222
vernier = 0.00462963
Gmin = 2.12869
vernier = 0.00617283
vernier = 0.00823044
Gmin = 2.09558
vernier = 0.0109739
Gmin = 2.04453
vernier = 0.0146319
vernier = 0.0195092
Gmin = 1.96168
vernier = 0.0260122
vernier = 0.034683
Gmin = 1.83659
vernier = 0.046244
Gmin = 1.656
vernier = 0.0616586
vernier = 0.0822114
Gmin = 1.3927
vernier = 0.109615
vernier = 0.146154
Gmin = 1.05821
vernier = 0.194871
Gmin = 0.689091
vernier = 0.259828
vernier = 0.346438
Gmin = 0.338836
vernier = 0.461917
vernier = 0.615889
Gmin = 0.111862
vernier = 0.307945
Gmin = 0
Gmin stepping aborted per request.

Starting source stepping with srcstepmethod=0
Source Step = 3.0303%
Source Step = 14.3939%
Source Step = 21.9697%
Source Step = 29.5455%
Source Step = 37.1212%
Source Step = 44.697%
vernier = 0.375
Source Step = 54.5455%
Source Step = 65.9091%
vernier = 0.09375
Source Step = 65.2965%
Source Step = 65.3409%
Source Step = 65.3853%
Source Step = 65.4297%
Source Step = 65.4741%
Source Step = 65.5185%
vernier = 0.00219727
Source Step = 65.5784%
Source Step = 65.645%
Source Step = 65.7116%
Source Step = 65.7781%
Source Step = 65.8447%
vernier = 0.0032959
Source Step = 65.9313%
Source Step = 66.0312%
Source Step = 66.131%
Source Step = 66.2309%
Source Step = 66.3308%
vernier = 0.00494385
Source Step = 66.4556%
Source Step = 66.6054%
Source Step = 66.7553%
Source Step = 66.9051%
Source Step = 67.0549%
vernier = 0.00741577
Source Step = 67.2347%
Source Step = 67.4594%
Source Step = 67.6841%
Source Step = 67.9088%
Source Step = 68.1335%
vernier = 0.0111237
Source Step = 68.392%
Source Step = 68.7291%
vernier = 0.00278091
Source stepping aborted.
Starting source stepping with srcstepmethod=1
Source Step = 3.0303%
Source Step = 14.3939%
Source Step = 21.9697%
Source Step = 29.5455%
Source Step = 37.1212%
Source Step = 44.697%
vernier = 0.375
Source Step = 54.5455%
Source Step = 65.9091%
Source Step = 77.2727%
Source Step = 88.6364%
Source stepping aborted.
Pseudo Transient failed in finding the operating point at 5 µs.
Trouble finding operating point....skipping operating point for Transient analysis.
Changing Tseed to 5e-011
Changing Tseed to 5e-013
Changing Tseed to 5e-010
Changing Tseed to 5e-014
Heightened Def Con from 7.50234e-006 +to 7.50234e-006
Heightened Def Con from 7.50234e-006 to 7.50234e-006
Heightened Def Con from 7.50234e-006 +to 7.50234e-006
Heightened Def Con from 7.50234e-006 +to 7.50234e-006
Heightened Def Con from 7.50234e-006 to 7.50234e-006
Heightened Def Con from 7.50234e-006 +to 7.50234e-006
Heightened Def Con from 7.50234e-006 to 7.50234e-006
Heightened Def Con from 7.50234e-006 +to 7.50234e-006
Heightened Def Con from 7.50234e-006 to 7.50234e-006
Heightened Def Con from 7.50234e-006 +to 7.50234e-006
Heightened Def Con from 7.50234e-006 to 7.50234e-006
Heightened Def Con from 7.50234e-006 +to 7.50234e-006
Heightened Def Con from 7.50234e-006 to 7.50234e-006
Heightened Def Con from 7.50234e-006 +to 7.50234e-006
Heightened Def Con from 7.50234e-006 +to 7.50234e-006
Heightened Def Con from 7.50234e-006 to 7.50234e-006
Heightened Def Con from 7.50234e-006 +to 7.50234e-006
Heightened Def Con from 7.50234e-006 +to 7.50234e-006
Heightened Def Con from 7.50234e-006 +to 7.50234e-006
Heightened Def Con from 7.50234e-006 +to 7.50234e-006
Heightened Def Con from 7.50234e-006 +to 7.50234e-006
Heightened Def Con from 7.50234e-006 +to 7.50234e-006
Heightened Def Con from 7.50234e-006 +to 7.50234e-006
Heightened Def Con from 7.50234e-006 +to 7.50234e-006
Heightened Def Con from 7.50234e-006 +to 7.50234e-006
Heightened Def Con from 7.50234e-006 +to 7.50234e-006
Heightened Def Con from 7.50234e-006 +to 7.50234e-006
Heightened Def Con from 7.50234e-006 +to 7.50234e-006
Heightened Def Con from 7.50234e-006 +to 7.50234e-006
Heightened Def Con from 7.50234e-006 +to 7.50234e-006
Heightened Def Con from 7.50234e-006 +to 7.50234e-006
Heightened Def Con from 7.50234e-006 +to 7.50234e-006
Heightened Def Con from 7.50234e-006 +to 7.50234e-006
Heightened Def Con from 7.50234e-006 +to 7.50234e-006
Heightened Def Con from 7.50234e-006 +to 7.50234e-006
Heightened Def Con from 7.50234e-006 +to 7.50234e-006
Heightened Def Con from 7.50234e-006 +to 7.50234e-006
Heightened Def Con from 7.50234e-006 +to 7.50234e-006
Heightened Def Con from 7.50234e-006 +to 7.50234e-006
Heightened Def Con from 7.50234e-006 ++to 7.50234e-006

Date: Tue Jan 23 20:49:28 2018
Total elapsed time: 11.250 seconds.

tnom = 27
temp = 27
method = modified trap
totiter = 16184
traniter = 11461
tranpoints = 1624
accept = 654
rejected = 1041
matrix size = 207
fillins = 239
solver = Normal
Matrix Compiler1: 18.84 KB object code size  159.7/12.1/[8.8]
Matrix Compiler2: 17.70 KB object code size  19.0/16.3/[13.3]

